/*--------------------------------*- C++ -*----------------------------------*\
  =========                 |
  \\      /  F ield         | OpenFOAM: The Open Source CFD Toolbox
   \\    /   O peration     | Website:  https://openfoam.org
    \\  /    A nd           | Version:  10
     \\/     M anipulation  |
\*---------------------------------------------------------------------------*/
FoamFile
{
    format      ascii;
    class       volScalarField;
    object      alphat;
}
// * * * * * * * * * * * * * * * * * * * * * * * * * * * * * * * * * * * * * //

dimensions      [1 -1 -1 0 0 0 0];

internalField   uniform 0;

boundaryField
{
    inlet
    {
        type            fixedValue;
        Prt             0.85;           // 湍流普朗特数：0.75~0.95
        value           $internalField;
    }

    "(top|bottom|walls)"
    {
        type            compressible::alphatJayatillekeWallFunction;
        Prt             0.85;
        value           $internalField;
    }

    outlet
    {
        type            zeroGradient;
        Prt             0.85;
    }

    frontAndBack
    {
        type            empty;
        Prt             0.85;
    }
}


// ************************************************************************* //
