/*--------------------------------*- C++ -*----------------------------------*\
  =========                 |
  \\      /  F ield         | OpenFOAM: The Open Source CFD Toolbox
   \\    /   O peration     | Website:  https://openfoam.org
    \\  /    A nd           | Version:  10
     \\/     M anipulation  |
\*---------------------------------------------------------------------------*/
FoamFile
{
    format      ascii;
    class       volScalarField;
    location    "0";
    object      epsilon;
}
// * * * * * * * * * * * * * * * * * * * * * * * * * * * * * * * * * * * * * //
epsilonInlet    0.0398599;// Cmu^0.75*k^1.5/L, L = 0.07I

dimensions      [0 2 -3 0 0 0 0];


internalField   uniform $epsilonInlet;

boundaryField
{
    inlet
    {
        type            fixedValue;
        value           uniform $epsilonInlet;
    }

    outlet
    {
        type            inletOutlet;
        inletValue      uniform $epsilonInlet;
        value           uniform $epsilonInlet;
    }

    "(top|bottom|walls)"
    {
        type            epsilonWallFunction;
        value           uniform $epsilonInlet;
    }

    frontAndBack
    {
        type            empty;
    }
}


// ************************************************************************* //
