/*--------------------------------*- C++ -*----------------------------------*\
  =========                 |
  \\      /  F ield         | OpenFOAM: The Open Source CFD Toolbox
   \\    /   O peration     | Website:  https://openfoam.org
    \\  /    A nd           | Version:  10
     \\/     M anipulation  |
\*---------------------------------------------------------------------------*/
FoamFile
{
    format      ascii;
    class       dictionary;
    location    "system";
    object      fvSolution;
}
// * * * * * * * * * * * * * * * * * * * * * * * * * * * * * * * * * * * * * //

solvers
{
    p_rgh
    {
        solver          PCG;
        preconditioner  DIC;
        tolerance       1e-5;
        relTol          1e-5;
    }

    "(U|e|k|epsilon|T)"
    {
        solver          PBiCGStab;
        preconditioner  DILU;
        tolerance       1e-5;
        relTol          1e-5;
    }
}

PIMPLE
{
    nNonOrthogonalCorrectors 0;

    residualControl
    {
        p_rgh           1e-5;
        U               1e-5;
        e               1e-5;
        T               1e-5;

        "(k|epsilon|omega)" 1e-5;
    }
}

relaxationFactors
{
    fields
    {
        p_rgh           0.7;
    }

    equations
    {
        U               0.3;
        e               0.5;
        "(k|epsilon|R|T)" 0.7;
    }
}


// ************************************************************************* //
