/*--------------------------------*- C++ -*----------------------------------*\
  =========                 |
  \\      /  F ield         | OpenFOAM: The Open Source CFD Toolbox
   \\    /   O peration     | Website:  https://openfoam.org
    \\  /    A nd           | Version:  dev
     \\/     M anipulation  |
\*---------------------------------------------------------------------------*/
FoamFile
{
    version     2.0;
    format      ascii;
    class       dictionary;
    location    "system";
    object      fvSolution;
}
// * * * * * * * * * * * * * * * * * * * * * * * * * * * * * * * * * * * * * //

solvers
{
    "alpha.water.*"
    {
        nAlphaCorr      1;
        nAlphaSubCycles 3;
        cAlpha          1;
    }

    p_rgh
    {
        solver          GAMG;
        tolerance       1e-08;
        relTol          0.01;
        smoother        DIC;
        nPreSweeps      0;
        nPostSweeps     2;
        nFinestSweeps   2;
        cacheAgglomeration  false;
        nCellsInCoarsestLevel   10;
        agglomerator    faceAreaPair;
        mergeLevels     1;
    }

    p_rghFinal
    {
        $ p_rgh;
        relTol          0;
    }

    "pcorr.*"
    {
        $ p_rghFinal;
        tolerance       1e-4;
    }

    U
    {
        solver          smoothSolver;
        smoother        GaussSeidel;
        tolerance       1e-06;
        relTol          0;
        nSweeps      1;
    }

    "(k|omega|B|nuTi|da).*"
    {
        solver          smoothSolver;
        smoother        symGaussSeidel;
        tolerance       1e-08;
        relTol          0;
    }
}

PIMPLE
{
    momentumPredictor   no;
    nCorrectors         3;
    nNonOrthogonalCorrectors 0;
    pRefPoint   (0.001 0.001 0.001);
    pRefValue   0;
}


// ************************************************************************* //
