/*--------------------------------*- C++ -*----------------------------------*\
  =========                 |
  \\      /  F ield         | OpenFOAM: The Open Source CFD Toolbox
   \\    /   O peration     | Website:  https://openfoam.org
    \\  /    A nd           | Version:  10
     \\/     M anipulation  |
\*---------------------------------------------------------------------------*/
FoamFile
{
    format      ascii;
    class       dictionary;
    object      controlDict;
}
// * * * * * * * * * * * * * * * * * * * * * * * * * * * * * * * * * * * * * //

application             interFoam;

startFrom               latestTime;

startTime               0;

stopAt                  endTime;

endTime                 0.05;

deltaT                  1e-8;

writeControl            adjustableRunTime;

writeInterval           0.001;

purgeWrite              0;

writeFormat             binary;

writePrecision          6;

writeCompression        off;

timeFormat              general;

runTimeModifiable       yes;

adjustTimeStep          on;

maxCo                   5;
maxAlphaCo              2;

functions
{
  probes
  {
    functionObjecLibs ("libsampling.so");
    type probes;
    name probes;
    writeControl timeStep;
    writeInterval 1;
    fields
    (
      U alpha.water p_rgh
    );
    probeLocations
    (
      (0 0 -0.005) (0 0 0.015)
    );
  }

  #includeFunc residuals;
}

// ************************************************************************* //
