/*--------------------------------*- C++ -*----------------------------------*\
  =========                 |
  \\      /  F ield         | OpenFOAM: The Open Source CFD Toolbox
   \\    /   O peration     | Website:  https://openfoam.org
    \\  /    A nd           | Version:  10
     \\/     M anipulation  |
\*---------------------------------------------------------------------------*/
FoamFile
{
    format      binary;
    class       polyBoundaryMesh;
    location    "constant/polyMesh";
    object      boundary;
}
// * * * * * * * * * * * * * * * * * * * * * * * * * * * * * * * * * * * * * //

4
(
    inlet
    {
        type            patch;
        nFaces          225;
        startFace       1129981;
    }
    outlet
    {
        type            patch;
        nFaces          225;
        startFace       1130206;
    }
    walls
    {
        type            symmetry;
        inGroups        List<word> 1(symmetry);
        nFaces          3000;
        startFace       1130431;
    }
    bullet
    {
        type            wall;
        inGroups        List<word> 1(wall);
        nFaces          37743;
        startFace       1133431;
    }
)

// ************************************************************************* //
